$META  CADCreoParametricCreateAssembly v1.4.58.0      Wed Oct 29 16:15:57 2014
$
$META  Assembly ConfigurationID: f5898d7b-a221-423f-9cc5-a50c9fd441f3|1
$META  FEA AnalysisID:           id-0065-00000002
$META  FEA AnalysisType:         THERMAL
$
$META  MaterialID: 1  ComponentID: {dfee6769-d1dd-4050-b8be-d52750b5e734}  ComponentName: beam
$
SOL 153
CEND
TITLE = Beam_Thermal
ANALYSIS = HEAT
THERMAL = ALL
FLUX = ALL
SPCF = ALL
OLOAD = ALL
NLPARM = 110
SPC = 259
LOAD = 559
TEMPERATURE(INITIAL) = 102
BEGIN BULK
PARAM,POST,0
PARAM,AUTOSPC,YES
LOAD,559,1.,1.,59
NLPARM,110,10,,AUTO,5,25,,NO
$ Global Coordinate System of the model
CORD2R,1,0,0.,0.,0.,0.,0.,1.,
,1.,0.,0.
$ Coordinate System for grid coordinates
CORD2R,2,1,0.,0.,0.,0.,0.,1.,
,1.,0.,0.
$ Coordinate System for default grid displacement
CORD2R,3,2,0.,0.,0.,0.,0.,1.,
,1.,0.,0.
$ ----------------------------------------
$ Mesh "BEAM_THERMAL"
$ Included Components :
$   BEAM_THERMAL
$     BEAM (Assembly Path : [40])
$META MAT1,1,1.99948E8,,0.270000,7.82708E-6,1.17E-5,,,
PSOLID,1,1
GRID,1,2,-10.,0.,10.,3
GRID,2,2,10.,0.,10.,3
GRID,3,2,10.,0.,-10.,3
GRID,4,2,-10.,0.,-10.,3
GRID,5,2,-10.,100.,10.,3
GRID,6,2,10.,100.,10.,3
GRID,7,2,-10.,100.,-10.,3
GRID,8,2,10.,100.,-10.,3
GRID,9,2,-10.,9.09091,10.,3
GRID,10,2,-10.,22.7273,10.,3
GRID,11,2,-10.,40.9091,10.,3
GRID,12,2,-10.,59.0909,10.,3
GRID,13,2,-10.,77.2727,10.,3
GRID,14,2,-10.,90.9091,10.,3
GRID,15,2,10.,9.09091,10.,3
GRID,16,2,10.,22.7273,10.,3
GRID,17,2,10.,40.9091,10.,3
GRID,18,2,10.,59.0909,10.,3
GRID,19,2,10.,77.2727,10.,3
GRID,20,2,10.,90.9091,10.,3
$ ... 124 like lines cut
CTETRA,1,1,17,22,33,23,102,124,
,105,103,121,128
CTETRA,2,1,29,33,28,23,142,140,
,139,127,128,126
CTETRA,3,1,26,32,6,8,136,57,
,56,60,61,54
CTETRA,4,1,18,13,19,24,85,86,
,106,108,88,112
CTETRA,5,1,6,20,32,26,55,117,
,57,56,116,136
CTETRA,6,1,21,1,9,27,39,37,
,64,119,40,65
CTETRA,7,1,21,22,33,16,118,124,
,120,98,99,100
CTETRA,8,1,21,33,27,10,120,138,
,119,69,72,70
CTETRA,9,1,9,15,21,10,63,96,
,64,62,67,69
CTETRA,10,1,14,20,32,5,93,117,
,94,50,51,52
CTETRA,11,1,24,13,19,25,88,86,
,112,129,89,113
CTETRA,12,1,23,17,29,33,103,104,
,127,128,105,142
CTETRA,13,1,5,6,32,7,48,57,
,52,49,53,59
CTETRA,14,1,32,19,26,20,115,114,
,136,117,111,116
CTETRA,15,1,8,32,6,7,61,57,
,54,58,59,53
CTETRA,16,1,17,23,29,18,103,127,
,104,101,107,109
CTETRA,17,1,16,33,21,10,100,120,
,98,68,72,69
CTETRA,18,1,18,29,17,12,109,104,
,101,81,82,80
CTETRA,19,1,5,20,32,6,51,117,
,52,48,55,57
CTETRA,20,1,20,14,32,13,93,94,
,117,87,84,92
$ ... 58 like lines cut
$ ----------------------------------------
MAT4,1,0.0155,510,7.95e-009
MAT4,100003,,,,222.34
SPC,259,5,1,401.123450
TEMP,102,5,401.123
TEMP,102,6,401.123
TEMP,102,7,401.123
TEMP,102,8,401.123
TEMP,102,48,401.123
TEMP,102,49,401.123
TEMP,102,53,401.123
TEMP,102,54,401.123
TEMP,102,58,401.123
SPC,259,6,1,401.123450
SPC,259,7,1,401.123450
SPC,259,8,1,401.123450
SPC,259,48,1,401.123450
SPC,259,49,1,401.123450
SPC,259,53,1,401.123450
SPC,259,54,1,401.123450
SPC,259,58,1,401.123450
QBDY3,59,310,,100001
QBDY3,59,310,,100002
CHBDYG,100001,,AREA6
,12,30,29,83,141,82
CHBDYG,100002,,AREA6
,29,12,11,82,73,77
CHBDYG,100005,,AREA6
,3,1,4,35,36,44
CHBDYG,100006,,AREA6
,2,1,3,34,35,41
QVOL,59,0.003114,,1,2,3,4,5
QVOL,59,0.003114,,6,7,8,9,10
QVOL,59,0.003114,,11,12,13,14,15
QVOL,59,0.003114,,16,17,18,19,20
QVOL,59,0.003114,,21,22,23,24,25
QVOL,59,0.003114,,26,27,28,29,30
QVOL,59,0.003114,,31,32,33,34,35
QVOL,59,0.003114,,36,37,38,39,40
QVOL,59,0.003114,,41,42,43,44,45
QVOL,59,0.003114,,46,47,48,49
TEMPD,102,293
SPOINT,145
SPC,259,145,1,243.990000
PCONV,100004,100003,0,0.
CONV,100005,100004,0,0,145
CONV,100006,100004,0,0,145
ENDDATA